// -*- C++ -*-
// File generated by PyFoam - sorry for the ugliness

FoamFile
{
 version 2.0;
 format ascii;
 class dictionary;
 object blockMeshDict;
}

convertToMeters 1.0;

vertices
  (
    (-0.6000000000000001  -0.6000000000000001  -0.6000000000000001)
    (0.6000000000000001  -0.6000000000000001  -0.6000000000000001)
    (0.6000000000000001  0.6000000000000001  -0.6000000000000001)
    (-0.6000000000000001  0.6000000000000001  -0.6000000000000001)
    (-0.6000000000000001  -0.6000000000000001  1.6)
    (0.6000000000000001  -0.6000000000000001  1.6)
    (0.6000000000000001  0.6000000000000001  1.6)
    (-0.6000000000000001  0.6000000000000001  1.6)
  );

blocks
  (
    hex

    (
      0
      1
      2
      3
      4
      5
      6
      7
    )
    (24  24  44)
    simpleGrading
    (1 1 1)
  );

patches
  (
  );

edges
  (
  );

boundary
  (
  ); 	// ************************************************************************* //

