// -*- C++ -*-
// File generated by PyFoam - sorry for the ugliness

FoamFile
{
 version 2.0;
 format ascii;
 class dictionary;
 object surfaceFeatureExtractDict;
}

mesh.stlb
{
  extractionMethod extractFromSurface;
  extractFromSurfaceCoeffs
  {
    includedAngle 120;
  } 	// Write features to obj format for postprocessing
  writeObj yes;
}

